data/Network1_Feeder1_2w/Loads.txt
! Imported from Loads.txt, with modified neutral terminal
! -------------------------------------------------------------------------
New Load.LOAD1 Phases=1 Bus1=34.1 kV=0.23 kW=1.968  PF=0.95
New Load.LOAD2 Phases=1 Bus1=47.2 kV=0.23 kW=0.306  PF=0.95
New Load.LOAD3 Phases=1 Bus1=70.1 kV=0.23 kW=2.94  PF=0.95
New Load.LOAD4 Phases=1 Bus1=73.1 kV=0.23 kW=0.324  PF=0.95
New Load.LOAD5 Phases=1 Bus1=74.1 kV=0.23 kW=1.332  PF=0.95
New Load.LOAD6 Phases=1 Bus1=83.2 kV=0.23 kW=3.0540000000000003  PF=0.95
New Load.LOAD7 Phases=1 Bus1=178.2 kV=0.23 kW=2.0580000000000003  PF=0.95
New Load.LOAD8 Phases=1 Bus1=208.1 kV=0.23 kW=0.29400000000000004  PF=0.95
New Load.LOAD9 Phases=1 Bus1=225.1 kV=0.23 kW=0.312  PF=0.95
New Load.LOAD10 Phases=1 Bus1=248.2 kV=0.23 kW=0.27  PF=0.95
New Load.LOAD11 Phases=1 Bus1=249.2 kV=0.23 kW=0.33  PF=0.95
New Load.LOAD12 Phases=1 Bus1=264.1 kV=0.23 kW=0.33  PF=0.95
New Load.LOAD13 Phases=1 Bus1=276.2 kV=0.23 kW=0.246  PF=0.95
New Load.LOAD14 Phases=1 Bus1=289.1 kV=0.23 kW=2.04  PF=0.95
New Load.LOAD15 Phases=1 Bus1=314.2 kV=0.23 kW=0.8280000000000001  PF=0.95
New Load.LOAD16 Phases=1 Bus1=320.1 kV=0.23 kW=0.11399999999999999  PF=0.95
New Load.LOAD17 Phases=1 Bus1=327.1 kV=0.23 kW=0.28800000000000003  PF=0.95
New Load.LOAD18 Phases=1 Bus1=337.1 kV=0.23 kW=0.324  PF=0.95
New Load.LOAD19 Phases=1 Bus1=342.1 kV=0.23 kW=1.944  PF=0.95
New Load.LOAD20 Phases=1 Bus1=349.1 kV=0.23 kW=0.264  PF=0.95
New Load.LOAD21 Phases=1 Bus1=387.1 kV=0.23 kW=0.336  PF=0.95
New Load.LOAD22 Phases=1 Bus1=388.1 kV=0.23 kW=0.966  PF=0.95
New Load.LOAD23 Phases=1 Bus1=406.2 kV=0.23 kW=0.246  PF=0.95
